<?xml version="1.0" encoding="UTF-8"?>

<!-- generated on 2024-02-26 17:42:33 by Eclipse SUMO netedit Version 1.19.0
-->

<routes xmlns:xsi="http://www.w3.org/2001/XMLSchema-instance" xsi:noNamespaceSchemaLocation="http://sumo.dlr.de/xsd/routes_file.xsd">
    <vType id="emergency" vClass="emergency" guiShape="emergency"/>
    <vType id="passenger" vClass="passenger" maxSpeed="7"/>
    <!-- Routes -->
    <route id="r_0" edges="1to2"/>
    <!-- Vehicles, persons and containers (sorted by depart) -->
    <trip id="v_0" type="passenger" depart="0.00" from="1to2" to="1to2" departLane="1"/>
    <trip id="v_1" type="passenger" depart="7.90" from="1to2" to="1to2" departLane="0"/>
    <trip id="v_2" type="passenger" depart="10.00" from="1to2" to="1to2" departLane="1"/>
    <trip id="v_3" type="passenger" depart="15.80" from="1to2" to="1to2" departLane="0"/>
    <trip id="v_4" type="passenger" depart="19.00" from="1to2" to="1to2" departLane="1"/>
    <trip id="v_5" type="emergency" depart="26.90" from="1to2" to="1to2" departLane="0"/>
</routes>
