<?xml version="1.0" encoding="UTF-8"?>

<!-- generated on 2024-02-26 17:48:48 by Eclipse SUMO netedit Version 1.19.0
<configuration xmlns:xsi="http://www.w3.org/2001/XMLSchema-instance" xsi:noNamespaceSchemaLocation="http://sumo.dlr.de/xsd/neteditConfiguration.xsd">

    <input>
        <sumocfg-file value="C:\Users\hnoue\Documents\Sumomaps\xx.sumocfg"/>
        <route-files value="C:\Users\hnoue\Documents\Sumomaps\AmbulanceSimulation2.rou.xml"/>
        <sumo-net-file value="C:\Users\hnoue\Documents\Sumomaps\AmbulanceSimulation.net.xml"/>
    </input>

    <output>
        <output-file value="C:\Users\hnoue\Documents\Sumomaps\AmbulanceSimulation.net.xml"/>
    </output>

    <processing>
        <geometry.min-radius.fix.railways value="false"/>
        <geometry.max-grade.fix value="false"/>
        <offset.disable-normalization value="true"/>
        <lefthand value="0"/>
    </processing>

    <junctions>
        <no-internal-links value="true"/>
        <no-turnarounds value="true"/>
        <junctions.corner-detail value="5"/>
        <junctions.limit-turn-speed value="5.50"/>
        <rectangular-lane-cut value="0"/>
    </junctions>

    <pedestrian>
        <walkingareas value="0"/>
    </pedestrian>

</configuration>
-->

<net version="1.16" junctionCornerDetail="5" limitTurnSpeed="5.50" xmlns:xsi="http://www.w3.org/2001/XMLSchema-instance" xsi:noNamespaceSchemaLocation="http://sumo.dlr.de/xsd/net_file.xsd">

    <location netOffset="0.00,0.00" convBoundary="-200.00,50.00,200.00,50.00" origBoundary="-10000000000.00,-10000000000.00,10000000000.00,10000000000.00" projParameter="!"/>

    <edge id="1to2" from="1" to="2" priority="-1">
        <lane id="1to2_0" index="0" speed="14.00" length="600.00" shape="-200.00,45.20 200.00,45.20"/>
        <lane id="1to2_1" index="1" speed="14.00" length="600.00" shape="-200.00,48.40 200.00,48.40"/>
    </edge>

    <junction id="1" type="dead_end" x="-300.00" y="50.00" incLanes="" intLanes="" shape="-200.00,50.00 -200.00,43.60"/>
    <junction id="2" type="dead_end" x="300.00" y="50.00" incLanes="1to2_0 1to2_1" intLanes="" shape="200.00,43.60 200.00,50.00"/>

</net>
