<?xml version="1.0" encoding="UTF-8"?>

<!-- generated on 2024-03-05 19:03:01 by Eclipse SUMO netedit Version 1.19.0
<configuration xmlns:xsi="http://www.w3.org/2001/XMLSchema-instance" xsi:noNamespaceSchemaLocation="http://sumo.dlr.de/xsd/neteditConfiguration.xsd">

    <input>
        <route-files value="C:\Users\hnoue\Documents\Sumomaps\Ashrafie\Ashrafie.rou.xml"/>
        <sumo-net-file value="C:\Users\hnoue\Documents\Sumomaps\Ashrafie\Ashrafie.net.xml"/>
    </input>

    <output>
        <output-file value="C:\Users\hnoue\Documents\Sumomaps\Ashrafie\Ashrafie.net.xml"/>
        <output.street-names value="true"/>
    </output>

    <processing>
        <geometry.min-radius.fix.railways value="false"/>
        <geometry.max-grade.fix value="false"/>
        <offset.disable-normalization value="true"/>
        <lefthand value="0"/>
    </processing>

    <junctions>
        <no-turnarounds value="true"/>
        <junctions.corner-detail value="5"/>
        <junctions.limit-turn-speed value="5.50"/>
        <rectangular-lane-cut value="0"/>
    </junctions>

    <pedestrian>
        <walkingareas value="0"/>
    </pedestrian>

</configuration>
-->

<net version="1.16" junctionCornerDetail="5" limitTurnSpeed="5.50" xmlns:xsi="http://www.w3.org/2001/XMLSchema-instance" xsi:noNamespaceSchemaLocation="http://sumo.dlr.de/xsd/net_file.xsd">

    <location netOffset="-731877.45,-3752442.89" convBoundary="0.00,8.23,1041.84,546.14" origBoundary="35.507325,33.886809,35.518597,33.891637" projParameter="+proj=utm +zone=36 +ellps=WGS84 +datum=WGS84 +units=m +no_defs"/>

    <type id="highway.residential" priority="3" numLanes="1" speed="13.89" disallow="tram rail_urban rail rail_electric rail_fast ship" oneway="0"/>
    <type id="highway.tertiary" priority="10" numLanes="1" speed="22.22" disallow="tram rail_urban rail rail_electric rail_fast ship" oneway="0"/>

    <edge id=":A_0" function="internal">
        <lane id=":A_0_0" index="0" disallow="tram rail_urban rail rail_electric rail_fast ship" speed="6.42" length="9.04" shape="289.51,369.35 288.83,366.96 287.55,365.39 285.66,364.65 283.17,364.73"/>
    </edge>
    <edge id=":A_1" function="internal">
        <lane id=":A_1_0" index="0" disallow="tram rail_urban rail rail_electric rail_fast ship" speed="13.89" length="11.95" shape="289.51,369.35 288.09,357.49"/>
    </edge>
    <edge id=":A_2" function="internal">
        <lane id=":A_2_0" index="0" disallow="tram rail_urban rail rail_electric rail_fast ship" speed="13.89" length="11.88" shape="294.40,360.98 291.42,362.33 288.93,363.31 286.36,364.07 283.17,364.73"/>
    </edge>
    <edge id=":AA_0" function="internal">
        <lane id=":AA_0_0" index="0" disallow="tram rail_urban rail rail_electric rail_fast ship" speed="22.22" length="11.20" shape="734.92,139.79 745.68,142.89"/>
    </edge>
    <edge id=":AA_1" function="internal">
        <lane id=":AA_1_0" index="0" disallow="tram rail_urban rail rail_electric rail_fast ship" speed="6.20" length="9.05" shape="739.36,147.17 740.00,144.72 741.27,143.19 743.16,142.58 745.68,142.89"/>
    </edge>
    <edge id=":AB_0" function="internal">
        <lane id=":AB_0_0" index="0" disallow="tram rail_urban rail rail_electric rail_fast ship" speed="22.22" length="11.29" shape="648.91,112.87 659.66,116.30"/>
    </edge>
    <edge id=":AB_1" function="internal">
        <lane id=":AB_1_0" index="0" disallow="tram rail_urban rail rail_electric rail_fast ship" speed="6.49" length="9.07" shape="648.91,112.87 651.17,113.89 652.55,115.39 653.05,117.38 652.67,119.85"/>
    </edge>
    <edge id=":AC_0" function="internal">
        <lane id=":AC_0_0" index="0" disallow="tram rail_urban rail rail_electric rail_fast ship" speed="22.22" length="11.08" shape="546.82,83.66 557.48,86.70"/>
    </edge>
    <edge id=":AC_1" function="internal">
        <lane id=":AC_1_0" index="0" disallow="tram rail_urban rail rail_electric rail_fast ship" speed="6.52" length="8.98" shape="546.82,83.66 549.05,84.66 550.44,86.14 550.99,88.10 550.69,90.55"/>
    </edge>
    <edge id=":AD_0" function="internal">
        <lane id=":AD_0_0" index="0" disallow="tram rail_urban rail rail_electric rail_fast ship" speed="22.22" length="10.67" shape="511.84,73.54 522.05,76.64"/>
    </edge>
    <edge id=":AD_1" function="internal">
        <lane id=":AD_1_0" index="0" disallow="tram rail_urban rail rail_electric rail_fast ship" speed="6.55" length="8.75" shape="515.19,80.30 516.29,78.16 517.80,76.83 519.72,76.33 522.05,76.64"/>
    </edge>
    <edge id=":AF_0" function="internal">
        <lane id=":AF_0_0" index="0" disallow="tram rail_urban rail rail_electric rail_fast ship" speed="22.22" length="9.69" shape="417.72,32.57 426.13,37.40"/>
    </edge>
    <edge id=":AF_1" function="internal">
        <lane id=":AF_1_0" index="0" disallow="tram rail_urban rail rail_electric rail_fast ship" speed="6.79" length="8.27" shape="417.72,32.57 419.33,33.86 420.26,35.49 420.50,37.46 420.07,39.77"/>
    </edge>
    <edge id=":AG_0" function="internal">
        <lane id=":AG_0_0" index="0" disallow="tram rail_urban rail rail_electric rail_fast ship" speed="7.27" length="7.84" shape="515.03,451.92 517.37,452.16 519.34,451.90 520.93,451.14 522.15,449.90"/>
    </edge>
    <edge id=":AG_1" function="internal">
        <lane id=":AG_1_0" index="0" disallow="tram rail_urban rail rail_electric rail_fast ship" speed="13.89" length="8.77" shape="517.03,457.02 522.15,449.90"/>
    </edge>
    <edge id=":B_0" function="internal">
        <lane id=":B_0_0" index="0" disallow="tram rail_urban rail rail_electric rail_fast ship" speed="13.89" length="10.81" shape="356.24,360.36 345.45,359.84"/>
    </edge>
    <edge id=":B_1" function="internal">
        <lane id=":B_1_0" index="0" disallow="tram rail_urban rail rail_electric rail_fast ship" speed="6.54" length="4.02" shape="351.23,354.59 350.71,356.96 349.81,358.28"/>
    </edge>
    <edge id=":B_2" function="internal">
        <lane id=":B_2_0" index="0" disallow="tram rail_urban rail rail_electric rail_fast ship" speed="6.54" length="4.80" shape="349.81,358.28 349.57,358.62 347.82,359.59 345.45,359.84"/>
    </edge>
    <edge id=":C_0" function="internal">
        <lane id=":C_0_0" index="0" disallow="tram rail_urban rail rail_electric rail_fast ship" speed="6.63" length="9.13" shape="466.79,362.44 464.34,362.52 462.48,363.39 461.19,365.04 460.47,367.47"/>
    </edge>
    <edge id=":C_1" function="internal">
        <lane id=":C_1_0" index="0" disallow="tram rail_urban rail rail_electric rail_fast ship" speed="13.89" length="11.20" shape="466.79,362.44 463.65,362.11 461.21,361.93 458.77,361.84 455.61,361.82"/>
    </edge>
    <edge id=":C_2" function="internal">
        <lane id=":C_2_0" index="0" disallow="tram rail_urban rail rail_electric rail_fast ship" speed="6.36" length="8.79" shape="466.79,362.44 464.44,361.83 462.88,360.62 462.10,358.80 462.10,356.38"/>
    </edge>
    <edge id=":D_0" function="internal">
        <lane id=":D_0_0" index="0" disallow="tram rail_urban rail rail_electric rail_fast ship" speed="6.74" length="9.49" shape="451.01,430.59 450.52,434.52 450.38,437.37 450.60,439.13 451.18,439.82"/>
    </edge>
    <edge id=":F_0" function="internal">
        <lane id=":F_0_0" index="0" disallow="tram rail_urban rail rail_electric rail_fast ship" speed="13.89" length="12.07" shape="562.60,371.14 550.55,370.54"/>
    </edge>
    <edge id=":F_1" function="internal">
        <lane id=":F_1_0" index="0" disallow="tram rail_urban rail rail_electric rail_fast ship" speed="6.01" length="4.33" shape="562.60,371.14 560.06,370.64 558.68,369.58"/>
    </edge>
    <edge id=":F_4" function="internal">
        <lane id=":F_4_0" index="0" disallow="tram rail_urban rail rail_electric rail_fast ship" speed="6.01" length="4.74" shape="558.68,369.58 558.52,369.45 557.97,367.59 558.43,365.03"/>
    </edge>
    <edge id=":F_2" function="internal">
        <lane id=":F_2_0" index="0" disallow="tram rail_urban rail rail_electric rail_fast ship" speed="6.10" length="9.06" shape="555.01,376.60 555.30,374.05 554.65,372.20 553.07,371.03 550.55,370.54"/>
    </edge>
    <edge id=":F_3" function="internal">
        <lane id=":F_3_0" index="0" disallow="tram rail_urban rail rail_electric rail_fast ship" speed="13.89" length="12.06" shape="555.01,376.60 558.43,365.03"/>
    </edge>
    <edge id=":G_0" function="internal">
        <lane id=":G_0_0" index="0" disallow="tram rail_urban rail rail_electric rail_fast ship" speed="22.22" length="10.67" shape="729.27,454.06 728.63,464.71"/>
    </edge>
    <edge id=":G_1" function="internal">
        <lane id=":G_1_0" index="0" disallow="tram rail_urban rail rail_electric rail_fast ship" speed="6.58" length="8.77" shape="723.53,458.81 725.87,459.43 727.50,460.63 728.42,462.39 728.63,464.71"/>
    </edge>
    <edge id=":H_0" function="internal">
        <lane id=":H_0_0" index="0" disallow="tram rail_urban rail rail_electric rail_fast ship" speed="13.89" length="5.92" shape="546.74,406.15 547.48,404.55 547.93,403.44 548.29,402.29 548.74,400.59"/>
    </edge>
    <edge id=":I_0" function="internal">
        <lane id=":I_0_0" index="0" disallow="tram rail_urban rail rail_electric rail_fast ship" speed="13.62" length="7.44" shape="736.85,362.93 735.71,364.82 735.03,366.19 734.68,367.67 734.48,369.85"/>
    </edge>
    <edge id=":I_1" function="internal">
        <lane id=":I_1_0" index="0" disallow="tram rail_urban rail rail_electric rail_fast ship" speed="8.25" length="7.58" shape="736.85,362.93 735.65,364.50 734.23,365.68 732.58,366.48 730.70,366.88"/>
    </edge>
    <edge id=":I_2" function="internal">
        <lane id=":I_2_0" index="0" disallow="tram rail_urban rail rail_electric rail_fast ship" speed="11.09" length="7.39" shape="732.56,362.92 733.67,364.80 734.30,366.19 734.53,367.68 734.48,369.85"/>
    </edge>
    <edge id=":I_3" function="internal">
        <lane id=":I_3_0" index="0" disallow="tram rail_urban rail rail_electric rail_fast ship" speed="4.74" length="5.73" shape="732.56,362.92 733.24,364.49 733.16,365.68 732.31,366.48 730.70,366.88"/>
    </edge>
    <edge id=":J_0" function="internal">
        <lane id=":J_0_0" index="0" disallow="tram rail_urban rail rail_electric rail_fast ship" speed="6.47" length="9.03" shape="720.25,296.26 722.73,296.18 724.57,295.32 725.78,293.69 726.36,291.27"/>
    </edge>
    <edge id=":J_1" function="internal">
        <lane id=":J_1_0" index="0" disallow="tram rail_urban rail rail_electric rail_fast ship" speed="6.83" length="9.19" shape="720.25,296.26 722.69,296.87 724.44,298.08 725.50,299.90 725.85,302.31"/>
    </edge>
    <edge id=":K_0" function="internal">
        <lane id=":K_0_0" index="0" disallow="tram rail_urban rail rail_electric rail_fast ship" speed="6.00" length="9.08" shape="609.95,278.18 609.33,280.70 609.76,282.60 611.23,283.87 613.74,284.52"/>
    </edge>
    <edge id=":K_1" function="internal">
        <lane id=":K_1_0" index="0" disallow="tram rail_urban rail rail_electric rail_fast ship" speed="13.89" length="11.21" shape="602.56,283.72 613.74,284.52"/>
    </edge>
    <edge id=":L_0" function="internal">
        <lane id=":L_0_0" index="0" disallow="tram rail_urban rail rail_electric rail_fast ship" speed="13.89" length="9.17" shape="580.35,282.93 589.51,283.40"/>
    </edge>
    <edge id=":L_1" function="internal">
        <lane id=":L_1_0" index="0" disallow="tram rail_urban rail rail_electric rail_fast ship" speed="6.90" length="3.40" shape="583.78,288.07 584.73,285.99 585.45,285.15"/>
    </edge>
    <edge id=":L_2" function="internal">
        <lane id=":L_2_0" index="0" disallow="tram rail_urban rail rail_electric rail_fast ship" speed="6.90" length="4.57" shape="585.45,285.15 586.00,284.52 587.59,283.66 589.51,283.40"/>
    </edge>
    <edge id=":M_0" function="internal">
        <lane id=":M_0_0" index="0" disallow="tram rail_urban rail rail_electric rail_fast ship" speed="6.70" length="8.87" shape="468.41,274.76 470.80,274.57 472.63,273.67 473.90,272.08 474.61,269.79"/>
    </edge>
    <edge id=":M_1" function="internal">
        <lane id=":M_1_0" index="0" disallow="tram rail_urban rail rail_electric rail_fast ship" speed="13.89" length="10.69" shape="468.41,274.76 479.09,275.46"/>
    </edge>
    <edge id=":M_2" function="internal">
        <lane id=":M_2_0" index="0" disallow="tram rail_urban rail rail_electric rail_fast ship" speed="13.89" length="10.69" shape="472.99,280.36 474.61,269.79"/>
    </edge>
    <edge id=":M_3" function="internal">
        <lane id=":M_3_0" index="0" disallow="tram rail_urban rail rail_electric rail_fast ship" speed="6.58" length="3.76" shape="472.99,280.36 473.66,278.07 474.51,276.99"/>
    </edge>
    <edge id=":M_4" function="internal">
        <lane id=":M_4_0" index="0" disallow="tram rail_urban rail rail_electric rail_fast ship" speed="6.58" length="5.02" shape="474.51,276.99 474.89,276.49 476.70,275.62 479.09,275.46"/>
    </edge>
    <edge id=":N_0" function="internal">
        <lane id=":N_0_0" index="0" disallow="tram rail_urban rail rail_electric rail_fast ship" speed="6.45" length="9.03" shape="358.54,262.78 358.69,265.26 359.60,267.08 361.27,268.23 363.70,268.72"/>
    </edge>
    <edge id=":N_1" function="internal">
        <lane id=":N_1_0" index="0" disallow="tram rail_urban rail rail_electric rail_fast ship" speed="13.89" length="11.21" shape="358.54,262.78 357.63,273.95"/>
    </edge>
    <edge id=":O_0" function="internal">
        <lane id=":O_0_0" index="0" disallow="tram rail_urban rail rail_electric rail_fast ship" speed="13.89" length="11.20" shape="278.15,263.81 276.99,252.67"/>
    </edge>
    <edge id=":O_1" function="internal">
        <lane id=":O_1_0" index="0" disallow="tram rail_urban rail rail_electric rail_fast ship" speed="6.42" length="9.04" shape="271.91,258.64 274.35,258.14 276.01,256.98 276.89,255.16 276.99,252.67"/>
    </edge>
    <edge id=":P_0" function="internal">
        <lane id=":P_0_0" index="0" disallow="tram rail_urban rail rail_electric rail_fast ship" speed="13.89" length="11.36" shape="274.36,226.83 273.26,215.52"/>
    </edge>
    <edge id=":P_1" function="internal">
        <lane id=":P_1_0" index="0" disallow="tram rail_urban rail rail_electric rail_fast ship" speed="5.95" length="9.09" shape="274.36,226.83 274.46,224.22 275.40,222.53 277.17,221.76 279.78,221.91"/>
    </edge>
    <edge id=":Q_0" function="internal">
        <lane id=":Q_0_0" index="0" disallow="tram rail_urban rail rail_electric rail_fast ship" speed="6.42" length="9.04" shape="366.23,238.95 363.74,239.00 361.90,239.84 360.69,241.47 360.13,243.90"/>
    </edge>
    <edge id=":Q_1" function="internal">
        <lane id=":Q_1_0" index="0" disallow="tram rail_urban rail rail_electric rail_fast ship" speed="6.85" length="5.63" shape="355.29,237.17 357.59,238.00 359.16,239.39 359.59,240.39"/>
    </edge>
    <edge id=":Q_2" function="internal">
        <lane id=":Q_2_0" index="0" disallow="tram rail_urban rail rail_electric rail_fast ship" speed="6.85" length="3.60" shape="359.59,240.39 360.01,241.36 360.13,243.90"/>
    </edge>
    <edge id=":R_0" function="internal">
        <lane id=":R_0_0" index="0" disallow="tram rail_urban rail rail_electric rail_fast ship" speed="6.75" length="8.24" shape="267.67,154.29 267.18,152.02 266.19,150.33 264.69,149.20 262.69,148.65"/>
    </edge>
    <edge id=":R_1" function="internal">
        <lane id=":R_1_0" index="0" disallow="tram rail_urban rail rail_electric rail_fast ship" speed="13.89" length="9.73" shape="272.36,149.68 262.69,148.65"/>
    </edge>
    <edge id=":S_0" function="internal">
        <lane id=":S_0_0" index="0" disallow="tram rail_urban rail rail_electric rail_fast ship" speed="6.42" length="9.03" shape="392.85,162.81 390.36,162.89 388.52,163.74 387.33,165.39 386.79,167.82"/>
    </edge>
    <edge id=":S_1" function="internal">
        <lane id=":S_1_0" index="0" disallow="tram rail_urban rail rail_electric rail_fast ship" speed="13.89" length="11.21" shape="392.85,162.81 381.70,161.57"/>
    </edge>
    <edge id=":T_0" function="internal">
        <lane id=":T_0_0" index="0" disallow="tram rail_urban rail rail_electric rail_fast ship" speed="13.89" length="11.25" shape="406.30,164.21 395.10,163.07"/>
    </edge>
    <edge id=":T_1" function="internal">
        <lane id=":T_1_0" index="0" disallow="tram rail_urban rail rail_electric rail_fast ship" speed="6.30" length="4.19" shape="400.92,157.97 400.52,160.45 399.60,161.85"/>
    </edge>
    <edge id=":T_2" function="internal">
        <lane id=":T_2_0" index="0" disallow="tram rail_urban rail rail_electric rail_fast ship" speed="6.30" length="4.85" shape="399.60,161.85 399.42,162.12 397.61,163.00 395.10,163.07"/>
    </edge>
    <edge id=":U_0" function="internal">
        <lane id=":U_0_0" index="0" disallow="tram rail_urban rail rail_electric rail_fast ship" speed="13.89" length="11.24" shape="449.59,168.04 438.39,167.05"/>
    </edge>
    <edge id=":U_1" function="internal">
        <lane id=":U_1_0" index="0" disallow="tram rail_urban rail rail_electric rail_fast ship" speed="6.20" length="9.05" shape="449.59,168.04 447.12,167.46 445.56,166.23 444.91,164.35 445.17,161.82"/>
    </edge>
    <edge id=":V_0" function="internal">
        <lane id=":V_0_0" index="0" disallow="tram rail_urban rail rail_electric rail_fast ship" speed="13.89" length="11.22" shape="496.12,172.26 484.95,171.22"/>
    </edge>
    <edge id=":V_1" function="internal">
        <lane id=":V_1_0" index="0" disallow="tram rail_urban rail rail_electric rail_fast ship" speed="6.35" length="9.04" shape="489.73,177.38 489.77,174.87 488.99,173.01 487.39,171.80 484.95,171.22"/>
    </edge>
    <edge id=":W_0" function="internal">
        <lane id=":W_0_0" index="0" disallow="tram rail_urban rail rail_electric rail_fast ship" speed="13.89" length="10.33" shape="533.35,175.72 523.06,174.88"/>
    </edge>
    <edge id=":W_1" function="internal">
        <lane id=":W_1_0" index="0" disallow="tram rail_urban rail rail_electric rail_fast ship" speed="6.80" length="8.72" shape="529.42,170.19 528.50,172.42 527.14,173.95 525.32,174.77 523.06,174.88"/>
    </edge>
    <edge id=":X_0" function="internal">
        <lane id=":X_0_0" index="0" disallow="tram rail_urban rail rail_electric rail_fast ship" speed="6.89" length="8.28" shape="650.84,188.01 648.83,188.07 647.11,188.81 645.69,190.23 644.56,192.33"/>
    </edge>
    <edge id=":X_1" function="internal">
        <lane id=":X_1_0" index="0" disallow="tram rail_urban rail rail_electric rail_fast ship" speed="13.89" length="9.62" shape="650.84,188.01 641.27,187.01"/>
    </edge>
    <edge id=":Y_0" function="internal">
        <lane id=":Y_0_0" index="0" disallow="tram rail_urban rail rail_electric rail_fast ship" speed="13.89" length="9.41" shape="632.12,186.25 622.76,185.28"/>
    </edge>
    <edge id=":Y_1" function="internal">
        <lane id=":Y_1_0" index="0" disallow="tram rail_urban rail rail_electric rail_fast ship" speed="6.96" length="3.31" shape="629.03,181.03 627.84,183.09 627.17,183.74"/>
    </edge>
    <edge id=":Y_2" function="internal">
        <lane id=":Y_2_0" index="0" disallow="tram rail_urban rail rail_electric rail_fast ship" speed="6.96" length="4.87" shape="627.17,183.74 626.40,184.49 624.70,185.22 622.76,185.28"/>
    </edge>
    <edge id=":Z_0" function="internal">
        <lane id=":Z_0_0" index="0" disallow="tram rail_urban rail rail_electric rail_fast ship" speed="12.50" length="10.32" shape="739.07,207.50 729.42,203.86"/>
    </edge>
    <edge id=":Z_1" function="internal">
        <lane id=":Z_1_0" index="0" disallow="tram rail_urban rail rail_electric rail_fast ship" speed="7.21" length="8.92" shape="739.07,207.50 736.99,206.38 735.57,204.84 734.80,202.89 734.69,200.53"/>
    </edge>
    <edge id=":Z_2" function="internal">
        <lane id=":Z_2_0" index="0" disallow="tram rail_urban rail rail_electric rail_fast ship" speed="7.17" length="8.90" shape="733.78,210.80 733.68,208.44 732.92,206.50 731.50,204.97 729.42,203.86"/>
    </edge>
    <edge id=":Z_3" function="internal">
        <lane id=":Z_3_0" index="0" disallow="tram rail_urban rail rail_electric rail_fast ship" speed="13.89" length="10.32" shape="733.78,210.80 734.69,200.53"/>
    </edge>

    <edge id="480510769#4" from="V" to="U" name="شارع عبد الوهاب الانكليزي" priority="3" type="highway.residential" spreadType="center">
        <lane id="480510769#4_0" index="0" disallow="tram rail_urban rail rail_electric rail_fast ship" speed="13.89" length="35.51" shape="484.95,171.22 449.59,168.04">
            <param key="origId" value="480510769"/>
        </lane>
    </edge>
    <edge id="A2O" from="A" to="O" name="شارع لبنان" priority="3" type="highway.residential" spreadType="center">
        <lane id="A2O_0" index="0" disallow="tram rail_urban rail rail_electric rail_fast ship" speed="13.89" length="94.21" shape="288.09,357.49 278.15,263.81">
            <param key="origId" value="34382902"/>
        </lane>
    </edge>
    <edge id="A2out1" from="A" to="out1" name="شارع هوفلين" priority="3" type="highway.residential" spreadType="center" shape="288.75,363.74 282.22,364.90 276.81,365.50 269.48,366.01 262.35,365.83 249.07,365.75 234.58,364.04 210.88,363.42 110.71,376.64">
        <lane id="A2out1_0" index="0" disallow="tram rail_urban rail rail_electric rail_fast ship" speed="13.89" length="173.51" shape="283.17,364.73 282.22,364.90 276.81,365.50 269.48,366.01 262.35,365.83 249.07,365.75 234.58,364.04 210.88,363.42 110.71,376.64">
            <param key="origId" value="31378879"/>
        </lane>
    </edge>
    <edge id="AA2out3" from="AA" to="out3" name="شارع الأشرفية" priority="10" type="highway.tertiary" spreadType="center" shape="740.02,141.34 885.33,181.17 895.73,182.65 987.08,179.64 1025.44,177.68 1033.38,177.75 1037.19,179.45 1039.23,182.34 1040.20,184.83 1040.74,186.21 1041.84,194.47">
        <lane id="AA2out3_0" index="0" disallow="tram rail_urban rail rail_electric rail_fast ship" speed="22.22" length="313.25" shape="745.68,142.89 885.33,181.17 895.73,182.65 987.08,179.64 1025.44,177.68 1033.38,177.75 1037.19,179.45 1039.23,182.34 1040.20,184.83 1040.74,186.21 1041.84,194.47">
            <param key="origId" value="330369167"/>
        </lane>
    </edge>
    <edge id="AB2AA" from="AB" to="AA" name="شارع الأشرفية" priority="10" type="highway.tertiary" spreadType="center" shape="654.31,114.42 673.09,121.00 740.02,141.34">
        <lane id="AB2AA_0" index="0" disallow="tram rail_urban rail rail_electric rail_fast ship" speed="22.22" length="78.85" shape="659.66,116.30 673.09,121.00 734.92,139.79">
            <param key="origId" value="330369167"/>
        </lane>
    </edge>
    <edge id="AB2Y" from="AB" to="Y" name="شارع شبارو" priority="3" type="highway.residential" spreadType="center" shape="654.31,114.42 645.11,144.98 626.90,185.82">
        <lane id="AB2Y_0" index="0" disallow="tram rail_urban rail rail_electric rail_fast ship" speed="13.89" length="65.72" shape="652.67,119.85 645.11,144.98 629.03,181.03">
            <param key="origId" value="27101724"/>
        </lane>
    </edge>
    <edge id="AC2AB" from="AC" to="AB" name="شارع الأشرفية" priority="10" type="highway.tertiary" spreadType="center">
        <lane id="AC2AB_0" index="0" disallow="tram rail_urban rail rail_electric rail_fast ship" speed="22.22" length="95.10" shape="557.48,86.70 648.91,112.87">
            <param key="origId" value="330369167"/>
        </lane>
    </edge>
    <edge id="AD2AC" from="AD" to="AC" name="شارع الأشرفية" priority="10" type="highway.tertiary" spreadType="center">
        <lane id="AD2AC_0" index="0" disallow="tram rail_urban rail rail_electric rail_fast ship" speed="22.22" length="25.75" shape="522.05,76.64 546.82,83.66">
            <param key="origId" value="330369167"/>
        </lane>
    </edge>
    <edge id="AF2AD" from="AF" to="AD" name="شارع الأشرفية" priority="10" type="highway.tertiary" spreadType="center" shape="421.62,34.81 431.72,40.60 455.87,54.74 469.27,61.08 500.00,69.70 516.98,75.20">
        <lane id="AF2AD_0" index="0" disallow="tram rail_urban rail rail_electric rail_fast ship" speed="22.22" length="93.61" shape="426.13,37.40 431.72,40.60 455.87,54.74 469.27,61.08 500.00,69.70 511.84,73.54">
            <param key="origId" value="330369167"/>
        </lane>
    </edge>
    <edge id="AF2T" from="AF" to="T" name="شارع بيت لحم" priority="3" type="highway.residential" spreadType="center" shape="421.62,34.81 405.27,87.00 402.15,103.11 401.61,114.95 400.83,163.73">
        <lane id="AF2T_0" index="0" disallow="tram rail_urban rail rail_electric rail_fast ship" speed="13.89" length="120.77" shape="420.07,39.77 405.27,87.00 402.15,103.11 401.61,114.95 400.92,157.97">
            <param key="origId" value="31348074"/>
        </lane>
    </edge>
    <edge id="AG2H" from="AG" to="H" name="شارع شحاده" priority="3" type="highway.residential" spreadType="center" shape="520.08,452.88 529.33,439.57 540.05,420.49 547.97,403.52">
        <lane id="AG2H_0" index="0" disallow="tram rail_urban rail rail_electric rail_fast ship" speed="13.89" length="50.29" shape="522.15,449.90 529.33,439.57 540.05,420.49 546.74,406.15">
            <param key="origId" value="571467983"/>
        </lane>
    </edge>
    <edge id="B2A" from="B" to="A" name="شارع غندور السعد" priority="3" type="highway.residential" spreadType="center" shape="350.80,360.03 319.30,358.94 302.42,358.65 299.38,358.95 296.81,359.87 293.99,361.17 288.75,363.74">
        <lane id="B2A_0" index="0" disallow="tram rail_urban rail rail_electric rail_fast ship" speed="13.89" length="51.48" shape="345.45,359.84 319.30,358.94 302.42,358.65 299.38,358.95 296.81,359.87 294.40,360.98">
            <param key="origId" value="571467986"/>
        </lane>
    </edge>
    <edge id="C2B" from="C" to="B" name="شارع غندور السعد" priority="3" type="highway.residential" spreadType="center" shape="461.32,361.83 435.91,361.80 372.62,361.36 350.80,360.03">
        <lane id="C2B_0" index="0" disallow="tram rail_urban rail rail_electric rail_fast ship" speed="13.89" length="99.40" shape="455.61,361.82 435.91,361.80 372.62,361.36 356.24,360.36">
            <param key="origId" value="571467986"/>
        </lane>
    </edge>
    <edge id="C2D" from="C" to="D" name="شارع الدوماني" priority="3" type="highway.residential" spreadType="center" shape="461.32,361.83 451.01,430.59">
        <lane id="C2D_0" index="0" disallow="tram rail_urban rail rail_electric rail_fast ship" speed="13.89" length="63.82" shape="460.47,367.47 451.01,430.59">
            <param key="origId" value="31378412"/>
        </lane>
        <param key="origTo" value="5924088521"/>
    </edge>
    <edge id="C2M" from="C" to="M" name="شارع الدوماني" priority="3" type="highway.residential" spreadType="center">
        <lane id="C2M_0" index="0" disallow="tram rail_urban rail rail_electric rail_fast ship" speed="13.89" length="76.80" shape="462.10,356.38 472.99,280.36">
            <param key="origId" value="692179020"/>
        </lane>
    </edge>
    <edge id="D2AG" from="D" to="AG" name="شارع جرجي زيدان" priority="3" type="highway.residential" spreadType="center" shape="449.67,439.53 520.08,452.88">
        <lane id="D2AG_0" index="0" disallow="tram rail_urban rail rail_electric rail_fast ship" speed="13.89" length="64.99" shape="451.18,439.82 515.03,451.92">
            <param key="origId" value="571467987"/>
        </lane>
        <param key="origFrom" value="349449947"/>
    </edge>
    <edge id="E0" from="AC" to="W" priority="-1">
        <lane id="E0_0" index="0" speed="13.89" length="82.43" shape="550.69,90.55 529.42,170.19"/>
    </edge>
    <edge id="F2C" from="F" to="C" name="شارع غندور السعد" priority="3" type="highway.residential" spreadType="center" shape="556.52,370.82 533.52,369.75 483.76,364.32 461.32,361.83">
        <lane id="F2C_0" index="0" disallow="tram rail_urban rail rail_electric rail_fast ship" speed="13.89" length="84.18" shape="550.55,370.54 533.52,369.75 483.76,364.32 466.79,362.44">
            <param key="origId" value="200915637"/>
        </lane>
    </edge>
    <edge id="F2L" from="F" to="L" name="شارع شحاده" priority="3" type="highway.residential" spreadType="center">
        <lane id="F2L_0" index="0" disallow="tram rail_urban rail rail_electric rail_fast ship" speed="13.89" length="81.04" shape="558.43,365.03 583.78,288.07">
            <param key="origId" value="571467990"/>
        </lane>
    </edge>
    <edge id="G2out5" from="G" to="out5" name="شارع شكري العسلي" priority="10" type="highway.tertiary" spreadType="center" shape="728.93,459.49 726.24,506.09 723.87,546.14">
        <lane id="G2out5_0" index="0" disallow="tram rail_urban rail rail_electric rail_fast ship" speed="22.22" length="81.57" shape="728.63,464.71 726.24,506.09 723.87,546.14">
            <param key="origId" value="264735354"/>
        </lane>
    </edge>
    <edge id="H2F" from="H" to="F" name="شارع شحاده" priority="3" type="highway.residential" spreadType="center">
        <lane id="H2F_0" index="0" disallow="tram rail_urban rail rail_electric rail_fast ship" speed="13.89" length="24.80" shape="548.74,400.59 555.01,376.60">
            <param key="origId" value="571467983"/>
        </lane>
    </edge>
    <edge id="H2G" from="H" to="G" name="شارع سليم عبد العدي" priority="3" type="highway.residential" spreadType="center" shape="547.97,403.52 640.49,432.28 655.52,436.86 666.94,441.83 676.32,446.50 682.03,448.99 688.68,451.25 693.97,452.87 715.95,457.85 728.93,459.49">
        <lane id="H2G_0" index="0" disallow="tram rail_urban rail rail_electric rail_fast ship" speed="13.89" length="181.47" shape="550.86,404.42 640.49,432.28 655.52,436.86 666.94,441.83 676.32,446.50 682.03,448.99 688.68,451.25 693.97,452.87 715.95,457.85 723.53,458.81">
            <param key="origId" value="200915636"/>
        </lane>
    </edge>