<configuration xmlns:xsi="http://www.w3.org/2001/XMLSchema-instance" xsi:noNamespaceSchemaLocation="http://sumo.dlr.de/xsd/duarouterConfiguration.xsd">

    <input>
        <net-file value="Ashrafie.net.xml"/>
        <route-files value="Ashrafie.rou.xml"/>
    </input>

    <time>
        <step-length value="1"/>
        <begin value="0"/>
        <end value="600"/>
    </time>

</configuration>
