<?xml version="1.0" encoding="UTF-8"?>

<!-- generated on 2024-02-28 21:46:50 by Eclipse SUMO netedit Version 1.19.0
<configuration xmlns:xsi="http://www.w3.org/2001/XMLSchema-instance" xsi:noNamespaceSchemaLocation="http://sumo.dlr.de/xsd/neteditConfiguration.xsd">

    <input>
        <route-files value="C:\Users\hnoue\Documents\Sumomaps\LaSagesse\LaSagesse2.rou.xml"/>
        <sumo-net-file value="C:\Users\hnoue\Documents\Sumomaps\LaSagesse\LaSagesse.net.xml"/>
    </input>

    <output>
        <output-file value="C:\Users\hnoue\Documents\Sumomaps\LaSagesse\LaSagesse.net.xml"/>
        <output.street-names value="true"/>
    </output>

    <processing>
        <geometry.min-radius.fix.railways value="false"/>
        <geometry.max-grade.fix value="false"/>
        <offset.disable-normalization value="true"/>
        <lefthand value="0"/>
    </processing>

    <junctions>
        <no-turnarounds value="true"/>
        <junctions.corner-detail value="5"/>
        <junctions.limit-turn-speed value="5.50"/>
        <rectangular-lane-cut value="0"/>
    </junctions>

    <pedestrian>
        <walkingareas value="0"/>
    </pedestrian>

</configuration>
-->

<net version="1.16" junctionCornerDetail="5" limitTurnSpeed="5.50" xmlns:xsi="http://www.w3.org/2001/XMLSchema-instance" xsi:noNamespaceSchemaLocation="http://sumo.dlr.de/xsd/net_file.xsd">

    <location netOffset="-733133.39,-3752623.32" convBoundary="64.40,317.01,799.72,743.74" origBoundary="35.520996,33.888140,35.531580,33.896246" projParameter="+proj=utm +zone=36 +ellps=WGS84 +datum=WGS84 +units=m +no_defs"/>

    <type id="highway.residential" priority="3" numLanes="1" speed="13.89" disallow="tram rail_urban rail rail_electric rail_fast ship" oneway="0"/>
    <type id="highway.tertiary" priority="10" numLanes="1" speed="22.22" disallow="tram rail_urban rail rail_electric rail_fast ship" oneway="0"/>
    <type id="highway.trunk" priority="13" numLanes="2" speed="27.78" disallow="pedestrian bicycle tram rail_urban rail rail_electric rail_fast ship" oneway="0"/>
    <type id="highway.trunk_link" priority="8" numLanes="1" speed="22.22" disallow="pedestrian bicycle tram rail_urban rail rail_electric rail_fast ship" oneway="0"/>

    <edge id=":8_0" function="internal">
        <lane id=":8_0_0" index="0" disallow="tram rail_urban rail rail_electric rail_fast ship" speed="3.65" length="4.67" shape="641.94,446.77 643.23,447.41 643.73,448.16 643.43,449.00 642.34,449.95"/>
    </edge>
    <edge id=":AA_0" function="internal">
        <lane id=":AA_0_0" index="0" disallow="tram rail_urban rail rail_electric rail_fast ship" speed="13.89" length="13.47" shape="280.37,582.04 278.19,568.75"/>
    </edge>
    <edge id=":AA_1" function="internal">
        <lane id=":AA_1_0" index="0" disallow="tram rail_urban rail rail_electric rail_fast ship" speed="6.71" length="9.70" shape="280.37,582.04 280.16,579.57 280.89,577.58 282.58,576.07 285.22,575.04"/>
    </edge>
    <edge id=":AE_0" function="internal">
        <lane id=":AE_0_0" index="0" disallow="pedestrian bicycle tram rail_urban rail rail_electric rail_fast ship" speed="13.89" length="14.83" shape="206.27,431.12 191.39,431.04"/>
        <lane id=":AE_0_1" index="1" disallow="pedestrian bicycle tram rail_urban rail rail_electric rail_fast ship" speed="13.89" length="14.83" shape="206.23,427.92 191.46,427.84"/>
    </edge>
    <edge id=":AE_2" function="internal">
        <lane id=":AE_2_0" index="0" disallow="pedestrian bicycle tram rail_urban rail rail_electric rail_fast ship" speed="6.85" length="9.51" shape="200.08,412.88 200.67,415.52 201.87,417.39 203.69,418.50 206.12,418.85"/>
        <lane id=":AE_2_1" index="1" disallow="pedestrian bicycle tram rail_urban rail rail_electric rail_fast ship" speed="7.65" length="12.11" shape="200.08,412.88 200.78,416.92 202.03,419.79 203.82,421.50 206.16,422.05"/>
    </edge>
    <edge id=":AE_4" function="internal">
        <lane id=":AE_4_0" index="0" disallow="pedestrian bicycle tram rail_urban rail rail_electric rail_fast ship" speed="9.65" length="22.93" shape="200.08,412.88 200.17,420.90 198.76,426.61 195.83,429.99 191.39,431.04"/>
        <lane id=":AE_4_1" index="1" disallow="pedestrian bicycle tram rail_urban rail rail_electric rail_fast ship" speed="9.03" length="19.92" shape="200.08,412.88 200.07,419.50 198.63,424.20 195.75,426.98 191.46,427.84"/>
    </edge>
    <edge id=":AE_6" function="internal">
        <lane id=":AE_6_0" index="0" disallow="pedestrian bicycle tram rail_urban rail rail_electric rail_fast ship" speed="6.30" length="9.06" shape="191.64,418.86 194.14,418.53 195.85,417.47 196.77,415.68 196.90,413.17"/>
    </edge>
    <edge id=":AE_7" function="internal">
        <lane id=":AE_7_0" index="0" disallow="pedestrian bicycle tram rail_urban rail rail_electric rail_fast ship" speed="27.78" length="14.48" shape="191.64,418.86 206.12,418.85"/>
    </edge>
    <edge id=":AE_8" function="internal">
        <lane id=":AE_8_0" index="0" disallow="pedestrian bicycle tram rail_urban rail rail_electric rail_fast ship" speed="6.20" length="9.35" shape="191.64,418.86 196.15,422.00 197.61,425.07 197.40,425.47"/>
    </edge>
    <edge id=":AE_9" function="internal">
        <lane id=":AE_9_0" index="0" disallow="pedestrian bicycle tram rail_urban rail rail_electric rail_fast ship" speed="27.78" length="14.58" shape="191.57,422.06 206.16,422.05"/>
    </edge>
    <edge id=":AE_10" function="internal">
        <lane id=":AE_10_0" index="0" disallow="pedestrian bicycle tram rail_urban rail rail_electric rail_fast ship" speed="4.54" length="5.04" shape="191.57,422.06 193.72,423.55 194.41,425.01 194.03,425.73"/>
    </edge>
    <edge id=":AE_11" function="internal">
        <lane id=":AE_11_0" index="0" disallow="pedestrian bicycle tram rail_urban rail rail_electric rail_fast ship" speed="6.20" length="8.46" shape="197.40,425.47 196.02,428.09 191.39,431.04"/>
    </edge>
    <edge id=":AE_12" function="internal">
        <lane id=":AE_12_0" index="0" disallow="pedestrian bicycle tram rail_urban rail rail_electric rail_fast ship" speed="4.54" length="3.41" shape="194.03,425.73 193.66,426.44 191.46,427.84"/>
    </edge>
    <edge id=":AF_0" function="internal">
        <lane id=":AF_0_0" index="0" disallow="pedestrian bicycle tram rail_urban rail rail_electric rail_fast ship" speed="7.58" length="11.59" shape="258.62,435.96 257.80,433.46 256.05,431.70 253.38,430.67 249.77,430.38"/>
    </edge>
    <edge id=":AF_1" function="internal">
        <lane id=":AF_1_0" index="0" disallow="tram rail_urban rail rail_electric rail_fast ship" speed="13.89" length="23.68" shape="258.62,435.96 254.90,412.57"/>
    </edge>
    <edge id=":AF_2" function="internal">
        <lane id=":AF_2_0" index="0" disallow="pedestrian bicycle tram rail_urban rail rail_electric rail_fast ship" speed="8.45" length="17.26" shape="258.62,435.96 258.24,429.59 258.94,425.02 260.70,422.26 263.53,421.30"/>
    </edge>
    <edge id=":AF_3" function="internal">
        <lane id=":AF_3_0" index="0" disallow="pedestrian bicycle tram rail_urban rail rail_electric rail_fast ship" speed="13.89" length="13.91" shape="263.68,430.08 249.77,430.38"/>
        <lane id=":AF_3_1" index="1" disallow="pedestrian bicycle tram rail_urban rail rail_electric rail_fast ship" speed="13.89" length="13.91" shape="263.62,426.88 249.72,427.18"/>
    </edge>
    <edge id=":AF_5" function="internal">
        <lane id=":AF_5_0" index="0" disallow="pedestrian bicycle tram rail_urban rail rail_electric rail_fast ship" speed="9.18" length="6.51" shape="263.62,426.88 260.13,426.07 258.08,423.98"/>
    </edge>
    <edge id=":AF_6" function="internal">
        <lane id=":AF_6_0" index="0" disallow="pedestrian bicycle tram rail_urban rail rail_electric rail_fast ship" speed="4.47" length="4.76" shape="263.62,426.88 261.51,425.52 260.79,424.14 261.08,423.52"/>
    </edge>
    <edge id=":AF_10" function="internal">
        <lane id=":AF_10_0" index="0" disallow="pedestrian bicycle tram rail_urban rail rail_electric rail_fast ship" speed="9.18" length="12.03" shape="258.08,423.98 257.51,423.41 255.77,418.91 254.90,412.57"/>
    </edge>
    <edge id=":AF_11" function="internal">
        <lane id=":AF_11_0" index="0" disallow="pedestrian bicycle tram rail_urban rail rail_electric rail_fast ship" speed="4.47" length="3.39" shape="261.08,423.52 261.46,422.73 263.53,421.30"/>
    </edge>
    <edge id=":AF_7" function="internal">
        <lane id=":AF_7_0" index="0" disallow="pedestrian bicycle tram rail_urban rail rail_electric rail_fast ship" speed="6.41" length="9.03" shape="249.57,418.31 252.03,417.93 253.74,416.84 254.69,415.06 254.90,412.57"/>
    </edge>
    <edge id=":AF_8" function="internal">
        <lane id=":AF_8_0" index="0" disallow="pedestrian bicycle tram rail_urban rail rail_electric rail_fast ship" speed="27.78" length="13.91" shape="249.57,418.31 263.47,418.10"/>
        <lane id=":AF_8_1" index="1" disallow="pedestrian bicycle tram rail_urban rail rail_electric rail_fast ship" speed="27.78" length="13.91" shape="249.62,421.51 263.53,421.30"/>
    </edge>
    <edge id=":AG_0" function="internal">
        <lane id=":AG_0_0" index="0" disallow="pedestrian bicycle tram rail_urban rail rail_electric rail_fast ship" speed="6.22" length="8.65" shape="303.59,428.97 301.43,429.38 299.96,430.51 299.20,432.37 299.14,434.95"/>
    </edge>
    <edge id=":AG_1" function="internal">
        <lane id=":AG_1_0" index="0" disallow="pedestrian bicycle tram rail_urban rail rail_electric rail_fast ship" speed="13.89" length="11.36" shape="303.59,428.97 292.26,429.23"/>
        <lane id=":AG_1_1" index="1" disallow="pedestrian bicycle tram rail_urban rail rail_electric rail_fast ship" speed="13.89" length="11.36" shape="303.54,425.77 292.16,426.03"/>
    </edge>
    <edge id=":AH_0" function="internal">
        <lane id=":AH_0_0" index="0" disallow="pedestrian bicycle tram rail_urban rail rail_electric rail_fast ship" speed="6.51" length="9.02" shape="297.70,408.76 298.24,411.17 299.42,412.83 301.24,413.75 303.70,413.91"/>
    </edge>
    <edge id=":AH_1" function="internal">
        <lane id=":AH_1_0" index="0" disallow="pedestrian bicycle tram rail_urban rail rail_electric rail_fast ship" speed="27.78" length="11.36" shape="292.69,417.61 303.94,417.10"/>
        <lane id=":AH_1_1" index="1" disallow="pedestrian bicycle tram rail_urban rail rail_electric rail_fast ship" speed="27.78" length="11.36" shape="292.74,420.81 304.18,420.29"/>
    </edge>
    <edge id=":AI_0" function="internal">
        <lane id=":AI_0_0" index="0" disallow="pedestrian bicycle tram rail_urban rail rail_electric rail_fast ship" speed="25.00" length="3.04" shape="309.03,413.51 312.07,413.34"/>
    </edge>
    <edge id=":AI_1" function="internal">
        <lane id=":AI_1_0" index="0" disallow="pedestrian bicycle tram rail_urban rail rail_electric rail_fast ship" speed="27.78" length="2.85" shape="309.27,416.70 312.18,416.56"/>
        <lane id=":AI_1_1" index="1" disallow="pedestrian bicycle tram rail_urban rail rail_electric rail_fast ship" speed="27.78" length="2.85" shape="309.51,419.89 312.30,419.76"/>
    </edge>
    <edge id=":AJ_0" function="internal">
        <lane id=":AJ_0_0" index="0" disallow="pedestrian bicycle tram rail_urban rail rail_electric rail_fast ship" speed="6.55" length="8.31" shape="336.43,410.19 338.51,409.38 339.91,408.10 340.65,406.33 340.71,404.07"/>
    </edge>
    <edge id=":AJ_1" function="internal">
        <lane id=":AJ_1_0" index="0" disallow="pedestrian bicycle tram rail_urban rail rail_electric rail_fast ship" speed="22.22" length="9.96" shape="336.43,410.19 339.31,409.53 341.30,409.18 343.32,409.02 346.28,408.93"/>
    </edge>
    <edge id=":AK_0" function="internal">
        <lane id=":AK_0_0" index="0" disallow="pedestrian bicycle tram rail_urban rail rail_electric rail_fast ship" speed="6.43" length="9.93" shape="398.68,407.56 401.18,407.06 402.76,405.72 403.44,403.54 403.21,400.52"/>
    </edge>
    <edge id=":AK_1" function="internal">
        <lane id=":AK_1_0" index="0" disallow="pedestrian bicycle tram rail_urban rail rail_electric rail_fast ship" speed="22.22" length="11.24" shape="398.68,407.56 401.72,407.23 403.95,406.61 406.29,405.94 409.66,405.48"/>
        <lane id=":AK_1_1" index="1" disallow="pedestrian bicycle tram rail_urban rail rail_electric rail_fast ship" speed="22.22" length="11.24" shape="398.68,407.56 401.75,407.73 404.04,408.21 406.45,408.64 409.86,408.68"/>
    </edge>
    <edge id=":AL_0" function="internal">
        <lane id=":AL_0_0" index="0" disallow="pedestrian bicycle tram rail_urban rail rail_electric rail_fast ship" speed="9.69" length="3.96" shape="435.27,408.69 436.26,409.30 437.00,409.65 437.79,409.83 438.95,409.93"/>
    </edge>
    <edge id=":AL_1" function="internal">
        <lane id=":AL_1_0" index="0" disallow="pedestrian bicycle tram rail_urban rail rail_electric rail_fast ship" speed="7.37" length="4.07" shape="433.55,411.39 434.54,412.06 435.15,412.64 435.55,413.38 435.93,414.51"/>
    </edge>
    <edge id=":AM_0" function="internal">
        <lane id=":AM_0_0" index="0" disallow="pedestrian bicycle tram rail_urban rail rail_electric rail_fast ship" speed="18.05" length="26.78" shape="340.03,432.65 335.22,431.67 328.71,430.32 321.24,429.15 313.59,428.75"/>
    </edge>
    <edge id=":AM_1" function="internal">
        <lane id=":AM_1_0" index="0" disallow="pedestrian bicycle tram rail_urban rail rail_electric rail_fast ship" speed="13.89" length="26.74" shape="340.35,428.72 313.59,428.75"/>
        <lane id=":AM_1_1" index="1" disallow="pedestrian bicycle tram rail_urban rail rail_electric rail_fast ship" speed="13.89" length="26.74" shape="340.25,425.52 313.52,425.55"/>
    </edge>
    <edge id=":AN_0" function="internal">
        <lane id=":AN_0_0" index="0" disallow="pedestrian bicycle tram rail_urban rail rail_electric rail_fast ship" speed="6.39" length="9.04" shape="351.68,433.46 349.22,433.89 347.54,435.00 346.62,436.81 346.48,439.30"/>
    </edge>
    <edge id=":AN_1" function="internal">
        <lane id=":AN_1_0" index="0" disallow="pedestrian bicycle tram rail_urban rail rail_electric rail_fast ship" speed="22.22" length="10.91" shape="351.68,433.46 348.57,433.53 346.22,433.48 343.89,433.25 340.81,432.78"/>
    </edge>
    <edge id=":AO_0" function="internal">
        <lane id=":AO_0_0" index="0" disallow="pedestrian bicycle tram rail_urban rail rail_electric rail_fast ship" speed="7.00" length="9.55" shape="406.01,437.79 405.25,435.19 403.94,433.36 402.07,432.29 399.64,431.99"/>
    </edge>
    <edge id=":AO_1" function="internal">
        <lane id=":AO_1_0" index="0" disallow="tram rail_urban rail rail_electric rail_fast ship" speed="3.65" length="4.67" shape="406.01,437.79 406.61,436.48 407.33,435.95 408.19,436.22 409.17,437.28"/>
    </edge>
    <edge id=":AO_2" function="internal">
        <lane id=":AO_2_0" index="0" disallow="pedestrian bicycle tram rail_urban rail rail_electric rail_fast ship" speed="6.36" length="9.04" shape="413.95,431.12 411.52,431.70 409.91,432.92 409.13,434.78 409.17,437.28"/>
    </edge>
    <edge id=":AO_3" function="internal">
        <lane id=":AO_3_0" index="0" disallow="pedestrian bicycle tram rail_urban rail rail_electric rail_fast ship" speed="22.22" length="14.33" shape="413.95,431.12 399.64,431.99"/>
    </edge>
    <edge id=":AP_0" function="internal">
        <lane id=":AP_0_0" index="0" disallow="pedestrian bicycle tram rail_urban rail rail_electric rail_fast ship" speed="9.56" length="5.65" shape="439.25,423.67 437.57,423.66 436.38,423.71 435.29,424.05 433.91,424.93"/>
    </edge>
    <edge id=":AP_1" function="internal">
        <lane id=":AP_1_0" index="0" disallow="pedestrian bicycle tram rail_urban rail rail_electric rail_fast ship" speed="9.40" length="5.65" shape="436.65,420.19 436.19,421.80 435.80,422.93 435.16,423.87 433.91,424.93"/>
    </edge>
    <edge id=":AR_0" function="internal">
        <lane id=":AR_0_0" index="0" disallow="tram rail_urban rail rail_electric rail_fast ship" speed="6.24" length="9.09" shape="476.91,422.72 474.42,423.28 472.82,424.49 472.12,426.36 472.30,428.88"/>
    </edge>
    <edge id=":AR_1" function="internal">
        <lane id=":AR_1_0" index="0" disallow="tram rail_urban rail rail_electric rail_fast ship" speed="22.22" length="12.15" shape="476.91,422.72 464.77,423.28"/>
    </edge>
    <edge id=":AR_2" function="internal">
        <lane id=":AR_2_0" index="0" disallow="tram rail_urban rail rail_electric rail_fast ship" speed="7.05" length="9.88" shape="469.53,405.91 470.31,408.48 471.71,410.28 473.73,411.30 476.37,411.55"/>
    </edge>
    <edge id=":AR_3" function="internal">
        <lane id=":AR_3_0" index="0" disallow="tram rail_urban rail rail_electric rail_fast ship" speed="13.89" length="23.14" shape="469.53,405.91 472.30,428.88"/>
    </edge>
    <edge id=":AR_4" function="internal">
        <lane id=":AR_4_0" index="0" disallow="tram rail_urban rail rail_electric rail_fast ship" speed="8.97" length="20.08" shape="469.53,405.91 470.26,413.47 469.71,418.88 467.88,422.15 464.77,423.28"/>
    </edge>
    <edge id=":AR_5" function="internal">
        <lane id=":AR_5_0" index="0" disallow="tram rail_urban rail rail_electric rail_fast ship" speed="22.22" length="11.78" shape="464.61,411.48 467.85,411.65 470.49,411.71 473.13,411.68 476.37,411.55"/>
    </edge>
    <edge id=":AR_6" function="internal">
        <lane id=":AR_6_0" index="0" disallow="tram rail_urban rail rail_electric rail_fast ship" speed="10.44" length="10.99" shape="464.61,411.48 466.55,412.65 468.48,415.95 470.12,420.57"/>
    </edge>
    <edge id=":AR_7" function="internal">
        <lane id=":AR_7_0" index="0" disallow="tram rail_urban rail rail_electric rail_fast ship" speed="6.18" length="13.79" shape="464.61,411.48 469.07,414.36 470.59,417.29 469.16,420.26 467.61,421.33"/>
    </edge>
    <edge id=":AR_8" function="internal">
        <lane id=":AR_8_0" index="0" disallow="tram rail_urban rail rail_electric rail_fast ship" speed="10.44" length="8.60" shape="470.12,420.57 470.40,421.35 472.30,428.88"/>
    </edge>
    <edge id=":AR_9" function="internal">
        <lane id=":AR_9_0" index="0" disallow="tram rail_urban rail rail_electric rail_fast ship" speed="6.18" length="3.44" shape="467.61,421.33 464.77,423.28"/>
    </edge>
    <edge id=":AS_0" function="internal">
        <lane id=":AS_0_0" index="0" disallow="tram rail_urban rail rail_electric rail_fast ship" speed="5.80" length="11.00" shape="549.86,403.68 552.14,405.71 552.43,407.47 550.72,408.96 547.01,410.18"/>
    </edge>
    <edge id=":AS_1" function="internal">
        <lane id=":AS_1_0" index="0" disallow="tram rail_urban rail rail_electric rail_fast ship" speed="3.65" length="4.67" shape="549.86,403.68 550.42,405.01 550.32,405.90 549.54,406.35 548.10,406.36"/>
    </edge>
    <edge id=":AT_0" function="internal">
        <lane id=":AT_0_0" index="0" disallow="tram rail_urban rail rail_electric rail_fast ship" speed="22.22" length="22.74" shape="547.94,406.25 543.72,403.64 538.17,400.42 532.58,397.29 528.21,394.94"/>
    </edge>
    <edge id=":AT_1" function="internal">
        <lane id=":AT_1_0" index="0" disallow="pedestrian bicycle tram rail_urban rail rail_electric rail_fast ship" speed="6.50" length="1.84" shape="547.94,406.25 546.58,404.99"/>
    </edge>
    <edge id=":AT_2" function="internal">
        <lane id=":AT_2_0" index="0" disallow="tram rail_urban rail rail_electric rail_fast ship" speed="3.65" length="1.24" shape="547.94,406.25 547.45,405.11"/>
    </edge>
    <edge id=":AT_13" function="internal">
        <lane id=":AT_13_0" index="0" disallow="pedestrian bicycle tram rail_urban rail rail_electric rail_fast ship" speed="6.50" length="11.14" shape="546.58,404.99 545.43,403.93 545.06,401.66 546.82,399.44 550.70,397.27"/>
    </edge>
    <edge id=":AT_14" function="internal">
        <lane id=":AT_14_0" index="0" disallow="tram rail_urban rail rail_electric rail_fast ship" speed="3.65" length="3.44" shape="547.45,405.11 547.37,404.92 547.48,404.03 548.25,403.58 549.69,403.57"/>
    </edge>
    <edge id=":AT_3" function="internal">
        <lane id=":AT_3_0" index="0" disallow="pedestrian bicycle tram rail_urban rail rail_electric rail_fast ship" speed="13.65" length="20.60" shape="529.67,392.09 535.18,394.43 540.32,395.58 545.10,395.54 549.50,394.30"/>
    </edge>
    <edge id=":AT_4" function="internal">
        <lane id=":AT_4_0" index="0" disallow="tram rail_urban rail rail_electric rail_fast ship" speed="22.22" length="23.08" shape="529.67,392.09 534.09,394.47 539.78,397.66 545.43,400.94 549.69,403.57"/>
    </edge>
    <edge id=":AT_5" function="internal">
        <lane id=":AT_5_0" index="0" disallow="tram rail_urban rail rail_electric rail_fast ship" speed="3.65" length="4.67" shape="529.67,392.09 530.37,393.36 530.36,394.25 529.64,394.78 528.21,394.94"/>
    </edge>
    <edge id=":AT_6" function="internal">
        <lane id=":AT_6_0" index="0" disallow="pedestrian bicycle tram rail_urban rail rail_electric rail_fast ship" speed="5.44" length="10.16" shape="527.50,400.50 530.69,399.55 531.87,398.31 531.04,396.77 528.21,394.94"/>
    </edge>
    <edge id=":AT_7" function="internal">
        <lane id=":AT_7_0" index="0" disallow="pedestrian bicycle tram rail_urban rail rail_electric rail_fast ship" speed="27.78" length="23.14" shape="527.50,400.50 533.79,399.30 538.74,398.18 543.57,396.68 549.50,394.30"/>
        <lane id=":AT_7_1" index="1" disallow="pedestrian bicycle tram rail_urban rail rail_electric rail_fast ship" speed="27.78" length="23.14" shape="528.30,403.61 534.65,402.38 539.74,401.22 544.71,399.67 550.70,397.27"/>
    </edge>
    <edge id=":AT_9" function="internal">
        <lane id=":AT_9_0" index="0" disallow="pedestrian bicycle tram rail_urban rail rail_electric rail_fast ship" speed="15.48" length="8.58" shape="528.30,403.61 535.19,402.42 536.76,402.27"/>
    </edge>
    <edge id=":AT_15" function="internal">
        <lane id=":AT_15_0" index="0" disallow="pedestrian bicycle tram rail_urban rail rail_electric rail_fast ship" speed="15.48" length="13.22" shape="536.76,402.27 541.11,401.85 545.97,402.15 549.69,403.57"/>
    </edge>
    <edge id=":AT_10" function="internal">
        <lane id=":AT_10_0" index="0" disallow="tram rail_urban rail rail_electric rail_fast ship" speed="6.11" length="11.69" shape="528.13,402.95 531.15,400.99 532.17,398.99 531.19,396.98 528.21,394.94"/>
    </edge>
    <edge id=":AT_11" function="internal">
        <lane id=":AT_11_0" index="0" disallow="pedestrian bicycle tram rail_urban rail rail_electric rail_fast ship" speed="25.00" length="23.32" shape="528.13,402.95 532.26,401.70 537.66,400.78 543.93,399.53 550.70,397.27"/>
    </edge>
    <edge id=":AT_12" function="internal">
        <lane id=":AT_12_0" index="0" disallow="tram rail_urban rail rail_electric rail_fast ship" speed="12.85" length="22.62" shape="528.13,402.95 533.92,400.83 539.45,400.22 544.70,401.14 549.69,403.57"/>
    </edge>
    <edge id=":AU_0" function="internal">
        <lane id=":AU_0_0" index="0" disallow="bicycle tram rail_urban rail rail_electric rail_fast ship" speed="20.84" length="15.60" shape="569.41,397.98 565.18,400.06 562.34,401.65 559.41,402.99 554.93,404.35"/>
        <lane id=":AU_0_1" index="1" disallow="bicycle tram rail_urban rail rail_electric rail_fast ship" speed="20.84" length="15.60" shape="568.11,395.06 564.03,397.07 561.29,398.62 558.47,399.93 554.15,401.24"/>
    </edge>
    <edge id=":AV_0" function="internal">
        <lane id=":AV_0_0" index="0" disallow="pedestrian bicycle tram rail_urban rail rail_electric rail_fast ship" speed="27.78" length="6.00" shape="559.09,390.15 560.66,389.34 561.64,388.61 562.62,387.88 564.17,387.04"/>
        <lane id=":AV_0_1" index="1" disallow="pedestrian bicycle tram rail_urban rail rail_electric rail_fast ship" speed="27.78" length="6.00" shape="560.37,393.09 561.94,392.27 562.93,391.54 563.92,390.80 565.49,389.96"/>
    </edge>
    <edge id=":AY_0" function="internal">
        <lane id=":AY_0_0" index="0" disallow="tram rail_urban rail rail_electric rail_fast ship" speed="6.96" length="8.54" shape="393.11,349.69 392.37,347.29 391.21,345.55 389.63,344.47 387.65,344.04"/>
    </edge>
    <edge id=":AY_1" function="internal">
        <lane id=":AY_1_0" index="0" disallow="tram rail_urban rail rail_electric rail_fast ship" speed="6.43" length="11.33" shape="393.11,349.69 392.77,345.93 393.47,343.42 395.22,342.15 398.01,342.13"/>
    </edge>
    <edge id=":AY_2" function="internal">
        <lane id=":AY_2_0" index="0" speed="13.89" length="9.89" shape="397.44,345.28 394.55,344.75 392.57,344.41 390.57,344.20 387.65,344.04"/>
    </edge>
    <edge id=":AY_3" function="internal">
        <lane id=":AY_3_0" index="0" speed="13.89" length="10.32" shape="387.79,340.84 390.80,341.01 392.93,341.24 395.04,341.59 398.01,342.13"/>
    </edge>
    <edge id=":AZ_0" function="internal">
        <lane id=":AZ_0_0" index="0" speed="13.89" length="11.40" shape="341.68,341.97 330.28,341.91"/>
    </edge>
    <edge id=":AZ_1" function="internal">
        <lane id=":AZ_1_0" index="0" speed="13.89" length="11.63" shape="330.19,338.72 341.82,338.77"/>
    </edge>
    <edge id=":AZ_2" function="internal">
        <lane id=":AZ_2_0" index="0" disallow="tram rail_urban rail rail_electric rail_fast ship" speed="6.36" length="9.00" shape="335.46,347.73 335.22,345.13 334.27,343.29 332.63,342.22 330.28,341.91"/>
    </edge>
    <edge id=":AZ_3" function="internal">
        <lane id=":AZ_3_0" index="0" disallow="tram rail_urban rail rail_electric rail_fast ship" speed="7.49" length="12.39" shape="335.46,347.73 335.98,343.71 337.22,340.87 339.17,339.23 341.82,338.77"/>
    </edge>
    <edge id=":BA_0" function="internal">
        <lane id=":BA_0_0" index="0" disallow="tram rail_urban rail rail_electric rail_fast ship" speed="6.40" length="9.04" shape="298.31,342.77 295.86,343.20 294.16,344.31 293.23,346.10 293.07,348.59"/>
    </edge>
    <edge id=":BA_1" function="internal">
        <lane id=":BA_1_0" index="0" speed="13.89" length="11.21" shape="298.31,342.77 287.10,343.11"/>
    </edge>
    <edge id=":BA_2" function="internal">
        <lane id=":BA_2_0" index="0" speed="13.89" length="11.23" shape="287.00,339.91 298.23,339.58"/>
    </edge>
    <edge id=":BA_3" function="internal">
        <lane id=":BA_3_0" index="0" disallow="tram rail_urban rail rail_electric rail_fast ship" speed="7.46" length="2.45" shape="287.00,339.91 289.40,340.39"/>
    </edge>
    <edge id=":BA_4" function="internal">
        <lane id=":BA_4_0" index="0" disallow="tram rail_urban rail rail_electric rail_fast ship" speed="7.46" length="9.33" shape="289.40,340.39 291.21,341.99 292.43,344.73 293.07,348.59"/>
    </edge>
    <edge id=":BB_0" function="internal">
        <lane id=":BB_0_0" index="0" speed="6.54" length="8.91" shape="251.22,349.83 250.74,347.42 249.62,345.73 247.86,344.74 245.47,344.46"/>
    </edge>
    <edge id=":BB_1" function="internal">
        <lane id=":BB_1_0" index="0" speed="7.22" length="11.58" shape="251.22,349.83 251.34,346.01 252.23,343.25 253.89,341.56 256.30,340.94"/>
    </edge>
    <edge id=":BB_2" function="internal">
        <lane id=":BB_2_0" index="0" speed="13.89" length="10.95" shape="256.41,344.14 245.47,344.46"/>
    </edge>
    <edge id=":BB_3" function="internal">
        <lane id=":BB_3_0" index="0" speed="13.89" length="10.93" shape="245.38,341.26 256.30,340.94"/>
    </edge>
    <edge id=":BC_0" function="internal">
        <lane id=":BC_0_0" index="0" speed="6.07" length="8.11" shape="190.89,347.87 191.00,345.63 191.82,344.01 193.33,343.01 195.54,342.63"/>
    </edge>
    <edge id=":BC_1" function="internal">
        <lane id=":BC_1_0" index="0" speed="3.90" length="2.70" shape="195.63,345.83 194.89,345.95 194.39,346.29 194.11,346.83 194.08,347.57"/>
    </edge>
    <edge id=":BD_0" function="internal">
        <lane id=":BD_0_0" index="0" disallow="tram rail_urban rail rail_electric rail_fast ship" speed="13.89" length="15.46" shape="318.09,522.06 302.95,525.19"/>
    </edge>
    <edge id=":BD_1" function="internal">
        <lane id=":BD_1_0" index="0" disallow="tram rail_urban rail rail_electric rail_fast ship" speed="6.53" length="3.46" shape="307.47,519.13 307.37,521.42 306.90,522.49"/>
    </edge>
    <edge id=":BD_2" function="internal">
        <lane id=":BD_2_0" index="0" disallow="tram rail_urban rail rail_electric rail_fast ship" speed="6.53" length="4.99" shape="306.90,522.49 306.59,523.19 305.12,524.45 302.95,525.19"/>
    </edge>
    <edge id=":BE_0" function="internal">
        <lane id=":BE_0_0" index="0" disallow="tram rail_urban rail rail_electric rail_fast ship" speed="13.89" length="9.20" shape="357.33,507.87 348.75,511.19"/>
    </edge>
    <edge id=":BE_1" function="internal">
        <lane id=":BE_1_0" index="0" disallow="tram rail_urban rail rail_electric rail_fast ship" speed="6.98" length="3.38" shape="352.15,504.59 352.10,506.86 351.77,507.92"/>
    </edge>
    <edge id=":BE_2" function="internal">
        <lane id=":BE_2_0" index="0" disallow="tram rail_urban rail rail_electric rail_fast ship" speed="6.98" length="4.61" shape="351.77,507.92 351.52,508.72 350.40,510.16 348.75,511.19"/>
    </edge>
    <edge id=":BF_0" function="internal">
        <lane id=":BF_0_0" index="0" disallow="tram rail_urban rail rail_electric rail_fast ship" speed="6.51" length="8.97" shape="389.08,501.23 386.80,502.14 385.35,503.56 384.73,505.50 384.95,507.94"/>
    </edge>
    <edge id=":BF_1" function="internal">
        <lane id=":BF_1_0" index="0" disallow="tram rail_urban rail rail_electric rail_fast ship" speed="13.89" length="10.95" shape="389.08,501.23 386.05,501.95 383.74,502.43 381.41,502.82 378.32,503.23"/>
    </edge>
    <edge id=":BG_0" function="internal">